<?xml version="1.0" encoding="UTF-8"?>

<!-- generated on 2024-06-30 18:46:50 by Eclipse SUMO netedit Version 1.20.0
<configuration xmlns:xsi="http://www.w3.org/2001/XMLSchema-instance" xsi:noNamespaceSchemaLocation="http://sumo.dlr.de/xsd/neteditConfiguration.xsd">

    <input>
        <sumocfg-file value="F:\GitHome\CPT411_Project\TEST.sumocfg"/>
        <additional-files value=""/>
        <route-files value="F:\GitHome\CPT411_Project\TEST.rou.xml"/>
        <sumo-net-file value="F:\GitHome\CPT411_Project\TEST.net.xml"/>
    </input>

    <output>
        <output-file value="F:\GitHome\CPT411_Project\TEST.net.xml"/>
    </output>

    <processing>
        <geometry.min-radius.fix.railways value="false"/>
        <geometry.max-grade.fix value="false"/>
        <offset.disable-normalization value="true"/>
        <lefthand value="0"/>
    </processing>

    <junctions>
        <no-internal-links value="false"/>
        <no-turnarounds value="true"/>
        <junctions.corner-detail value="5"/>
        <junctions.limit-turn-speed value="5.50"/>
        <rectangular-lane-cut value="0"/>
    </junctions>

    <pedestrian>
        <walkingareas value="0"/>
    </pedestrian>

</configuration>
-->

<net version="1.20" junctionCornerDetail="5" limitTurnSpeed="5.50" xmlns:xsi="http://www.w3.org/2001/XMLSchema-instance" xsi:noNamespaceSchemaLocation="http://sumo.dlr.de/xsd/net_file.xsd">

    <location netOffset="0.00,0.00" convBoundary="-100.00,-100.00,100.00,100.00" origBoundary="-10000000000.00,-10000000000.00,10000000000.00,10000000000.00" projParameter="!"/>

    <edge id=":J1_w0" function="walkingarea">
        <lane id=":J1_w0_0" index="0" allow="pedestrian" speed="2.78" length="23.20" width="2.00" shape="-10.60,100.00 -12.60,100.00 12.60,100.00 10.60,100.00"/>
    </edge>
    <edge id=":J2_0" function="internal">
        <lane id=":J2_0_0" index="0" allow="bicycle" speed="5.34" length="6.45" width="1.00" shape="-10.10,10.90 -10.35,9.15 -11.10,7.90 -12.35,7.15 -14.10,6.90"/>
    </edge>
    <edge id=":J2_1" function="internal">
        <lane id=":J2_1_0" index="0" allow="bicycle" speed="13.89" length="21.80" width="1.00" shape="-10.10,10.90 -10.10,-10.90"/>
    </edge>
    <edge id=":J2_2" function="internal">
        <lane id=":J2_2_0" index="0" allow="bicycle" speed="11.62" length="27.70" width="1.00" shape="-10.10,10.90 -7.57,4.79 -1.33,-0.96 6.57,-5.23 10.10,-6.01"/>
    </edge>
    <edge id=":J2_3" function="internal">
        <lane id=":J2_3_0" index="0" disallow="pedestrian" speed="6.76" length="5.59" shape="-8.00,10.90 -8.38,8.23 -9.52,6.32 -10.10,5.98"/>
    </edge>
    <edge id=":J2_4" function="internal">
        <lane id=":J2_4_0" index="0" disallow="pedestrian" speed="13.89" length="21.80" shape="-8.00,10.90 -8.00,-10.90"/>
        <lane id=":J2_4_1" index="1" disallow="pedestrian" speed="13.89" length="21.80" shape="-4.80,10.90 -4.80,-10.90"/>
        <lane id=":J2_4_2" index="2" disallow="pedestrian" speed="13.89" length="21.80" shape="-1.60,10.90 -1.60,-10.90"/>
    </edge>
    <edge id=":J2_7" function="internal">
        <lane id=":J2_7_0" index="0" disallow="pedestrian" speed="9.75" length="17.49" shape="-1.60,10.90 -0.09,6.31 3.74,2.31 8.82,-0.53 10.10,-0.79"/>
    </edge>
    <edge id=":J2_30" function="internal">
        <lane id=":J2_30_0" index="0" allow="bicycle" speed="11.62" length="4.10" width="1.00" shape="10.10,-6.01 14.10,-6.90"/>
    </edge>
    <edge id=":J2_31" function="internal">
        <lane id=":J2_31_0" index="0" disallow="pedestrian" speed="6.76" length="4.25" shape="-10.10,5.98 -11.43,5.18 -14.10,4.80"/>
    </edge>
    <edge id=":J2_32" function="internal">
        <lane id=":J2_32_0" index="0" disallow="pedestrian" speed="9.75" length="4.08" shape="10.10,-0.79 14.10,-1.60"/>
    </edge>
    <edge id=":J2_8" function="internal">
        <lane id=":J2_8_0" index="0" allow="bicycle" speed="5.34" length="6.45" width="1.00" shape="14.10,6.90 12.35,7.15 11.10,7.90 10.35,9.15 10.10,10.90"/>
    </edge>
    <edge id=":J2_9" function="internal">
        <lane id=":J2_9_0" index="0" allow="bicycle" speed="13.89" length="28.20" width="1.00" shape="14.10,6.90 -14.10,6.90"/>
    </edge>
    <edge id=":J2_10" function="internal">
        <lane id=":J2_10_0" index="0" allow="bicycle" speed="11.62" length="27.46" width="1.00" shape="14.10,6.90 6.57,5.23 -1.33,0.96 -7.57,-4.79 -8.44,-6.90"/>
    </edge>
    <edge id=":J2_11" function="internal">
        <lane id=":J2_11_0" index="0" disallow="pedestrian" speed="6.76" length="5.59" shape="14.10,4.80 11.43,5.18 9.52,6.33 9.18,6.90"/>
    </edge>
    <edge id=":J2_12" function="internal">
        <lane id=":J2_12_0" index="0" disallow="pedestrian" speed="13.89" length="28.20" shape="14.10,4.80 -14.10,4.80"/>
        <lane id=":J2_12_1" index="1" disallow="pedestrian" speed="13.89" length="28.20" shape="14.10,1.60 -14.10,1.60"/>
    </edge>
    <edge id=":J2_14" function="internal">
        <lane id=":J2_14_0" index="0" disallow="pedestrian" speed="9.75" length="17.36" shape="14.10,1.60 8.82,0.53 3.74,-2.31 -0.09,-6.31 -0.28,-6.90"/>
    </edge>
    <edge id=":J2_33" function="internal">
        <lane id=":J2_33_0" index="0" allow="bicycle" speed="11.62" length="4.33" width="1.00" shape="-8.44,-6.90 -10.10,-10.90"/>
    </edge>
    <edge id=":J2_34" function="internal">
        <lane id=":J2_34_0" index="0" disallow="pedestrian" speed="6.76" length="4.25" shape="9.18,6.90 8.38,8.23 8.00,10.90"/>
    </edge>
    <edge id=":J2_35" function="internal">
        <lane id=":J2_35_0" index="0" disallow="pedestrian" speed="9.75" length="4.21" shape="-0.28,-6.90 -1.60,-10.90"/>
    </edge>
    <edge id=":J2_15" function="internal">
        <lane id=":J2_15_0" index="0" allow="bicycle" speed="5.34" length="6.45" width="1.00" shape="10.10,-10.90 10.35,-9.15 11.10,-7.90 12.35,-7.15 14.10,-6.90"/>
    </edge>
    <edge id=":J2_16" function="internal">
        <lane id=":J2_16_0" index="0" allow="bicycle" speed="13.89" length="21.80" width="1.00" shape="10.10,-10.90 10.10,10.90"/>
    </edge>
    <edge id=":J2_17" function="internal">
        <lane id=":J2_17_0" index="0" allow="bicycle" speed="11.62" length="27.70" width="1.00" shape="10.10,-10.90 7.57,-4.79 1.33,0.96 -6.57,5.23 -10.10,6.01"/>
    </edge>
    <edge id=":J2_18" function="internal">
        <lane id=":J2_18_0" index="0" disallow="pedestrian" speed="6.76" length="5.59" shape="8.00,-10.90 8.38,-8.23 9.52,-6.32 10.10,-5.98"/>
    </edge>
    <edge id=":J2_19" function="internal">
        <lane id=":J2_19_0" index="0" disallow="pedestrian" speed="13.89" length="21.80" shape="8.00,-10.90 8.00,10.90"/>
        <lane id=":J2_19_1" index="1" disallow="pedestrian" speed="13.89" length="21.80" shape="4.80,-10.90 4.80,10.90"/>
        <lane id=":J2_19_2" index="2" disallow="pedestrian" speed="13.89" length="21.80" shape="1.60,-10.90 1.60,10.90"/>
    </edge>
    <edge id=":J2_22" function="internal">
        <lane id=":J2_22_0" index="0" disallow="pedestrian" speed="9.75" length="17.49" shape="1.60,-10.90 0.09,-6.31 -3.74,-2.31 -8.82,0.53 -10.10,0.79"/>
    </edge>
    <edge id=":J2_36" function="internal">
        <lane id=":J2_36_0" index="0" allow="bicycle" speed="11.62" length="4.10" width="1.00" shape="-10.10,6.01 -14.10,6.90"/>
    </edge>
    <edge id=":J2_37" function="internal">
        <lane id=":J2_37_0" index="0" disallow="pedestrian" speed="6.76" length="4.25" shape="10.10,-5.98 11.43,-5.18 14.10,-4.80"/>
    </edge>
    <edge id=":J2_38" function="internal">
        <lane id=":J2_38_0" index="0" disallow="pedestrian" speed="9.75" length="4.08" shape="-10.10,0.79 -14.10,1.60"/>
    </edge>
    <edge id=":J2_23" function="internal">
        <lane id=":J2_23_0" index="0" allow="bicycle" speed="5.34" length="6.45" width="1.00" shape="-14.10,-6.90 -12.35,-7.15 -11.10,-7.90 -10.35,-9.15 -10.10,-10.90"/>
    </edge>
    <edge id=":J2_24" function="internal">
        <lane id=":J2_24_0" index="0" allow="bicycle" speed="13.89" length="28.20" width="1.00" shape="-14.10,-6.90 14.10,-6.90"/>
    </edge>
    <edge id=":J2_25" function="internal">
        <lane id=":J2_25_0" index="0" allow="bicycle" speed="11.62" length="27.46" width="1.00" shape="-14.10,-6.90 -6.57,-5.23 1.33,-0.96 7.57,4.79 8.44,6.90"/>
    </edge>
    <edge id=":J2_26" function="internal">
        <lane id=":J2_26_0" index="0" disallow="pedestrian" speed="6.76" length="5.59" shape="-14.10,-4.80 -11.43,-5.18 -9.52,-6.33 -9.18,-6.90"/>
    </edge>
    <edge id=":J2_27" function="internal">
        <lane id=":J2_27_0" index="0" disallow="pedestrian" speed="13.89" length="28.20" shape="-14.10,-4.80 14.10,-4.80"/>
        <lane id=":J2_27_1" index="1" disallow="pedestrian" speed="13.89" length="28.20" shape="-14.10,-1.60 14.10,-1.60"/>
    </edge>
    <edge id=":J2_29" function="internal">
        <lane id=":J2_29_0" index="0" disallow="pedestrian" speed="9.75" length="17.36" shape="-14.10,-1.60 -8.82,-0.53 -3.74,2.31 0.09,6.31 0.28,6.90"/>
    </edge>
    <edge id=":J2_39" function="internal">
        <lane id=":J2_39_0" index="0" allow="bicycle" speed="11.62" length="4.33" width="1.00" shape="8.44,6.90 10.10,10.90"/>
    </edge>
    <edge id=":J2_40" function="internal">
        <lane id=":J2_40_0" index="0" disallow="pedestrian" speed="6.76" length="4.25" shape="-9.18,-6.90 -8.38,-8.23 -8.00,-10.90"/>
    </edge>
    <edge id=":J2_41" function="internal">
        <lane id=":J2_41_0" index="0" disallow="pedestrian" speed="9.75" length="4.21" shape="0.28,6.90 1.60,10.90"/>
    </edge>
    <edge id=":J2_c0" function="crossing" crossingEdges="-E0 E0">
        <lane id=":J2_c0_0" index="0" allow="pedestrian" speed="2.78" length="21.20" width="4.00" shape="10.60,8.90 -10.60,8.90" outlineShape="10.70,10.90 -10.60,10.90 -10.70,9.83 -10.99,8.96 -11.47,8.28 -12.16,7.79 -12.82,7.57 -10.60,6.90 10.60,6.90 12.82,7.57 12.16,7.79 11.47,8.28 10.99,8.96 10.70,9.83 10.60,10.90"/>
    </edge>
    <edge id=":J2_c1" function="crossing" crossingEdges="E1 -E1">
        <lane id=":J2_c1_0" index="0" allow="pedestrian" speed="2.78" length="14.80" width="4.00" shape="12.10,-7.40 12.10,7.40" outlineShape="14.10,-7.50 14.10,7.50 13.03,7.50 12.16,7.79 11.47,8.28 10.99,8.96 10.77,9.62 10.10,7.40 10.10,-7.40 10.77,-9.62 10.99,-8.96 11.47,-8.28 12.16,-7.79 13.03,-7.50 14.10,-7.40"/>
    </edge>
    <edge id=":J2_c2" function="crossing" crossingEdges="E2 -E2">
        <lane id=":J2_c2_0" index="0" allow="pedestrian" speed="2.78" length="21.20" width="4.00" shape="-10.60,-8.90 10.60,-8.90" outlineShape="-10.70,-10.90 10.60,-10.90 10.70,-9.83 10.99,-8.96 11.47,-8.28 12.16,-7.79 12.82,-7.57 10.60,-6.90 -10.60,-6.90 -12.82,-7.57 -12.16,-7.79 -11.47,-8.28 -10.99,-8.96 -10.70,-9.83 -10.60,-10.90"/>
    </edge>
    <edge id=":J2_c3" function="crossing" crossingEdges="E3 -E3">
        <lane id=":J2_c3_0" index="0" allow="pedestrian" speed="2.78" length="14.80" width="4.00" shape="-12.10,7.40 -12.10,-7.40" outlineShape="-14.10,7.50 -14.10,-7.50 -13.03,-7.50 -12.16,-7.79 -11.47,-8.28 -10.99,-8.96 -10.77,-9.62 -10.10,-7.40 -10.10,7.40 -10.77,9.62 -10.99,8.96 -11.47,8.28 -12.16,7.79 -13.03,7.50 -14.10,7.40"/>
    </edge>
    <edge id=":J2_w0" function="walkingarea">
        <lane id=":J2_w0_0" index="0" allow="pedestrian" speed="2.78" length="2.87" width="4.00" shape="-14.10,7.40 -14.10,9.40 -12.60,10.90 -10.60,10.90 -10.70,9.83 -10.99,8.96 -11.47,8.28 -12.16,7.79 -13.03,7.50"/>
    </edge>
    <edge id=":J2_w1" function="walkingarea">
        <lane id=":J2_w1_0" index="0" allow="pedestrian" speed="2.78" length="2.87" width="4.00" shape="10.60,10.90 12.60,10.90 14.10,9.40 14.10,7.40 13.03,7.50 12.16,7.79 11.47,8.28 10.99,8.96 10.70,9.83"/>
    </edge>
    <edge id=":J2_w2" function="walkingarea">
        <lane id=":J2_w2_0" index="0" allow="pedestrian" speed="2.78" length="2.87" width="4.00" shape="14.10,-7.40 14.10,-9.40 12.60,-10.90 10.60,-10.90 10.70,-9.83 10.99,-8.96 11.47,-8.28 12.16,-7.79 13.03,-7.50"/>
    </edge>
    <edge id=":J2_w3" function="walkingarea">
        <lane id=":J2_w3_0" index="0" allow="pedestrian" speed="2.78" length="2.87" width="4.00" shape="-10.60,-10.90 -12.60,-10.90 -14.10,-9.40 -14.10,-7.40 -13.03,-7.50 -12.16,-7.79 -11.47,-8.28 -10.99,-8.96 -10.70,-9.83"/>
    </edge>
    <edge id=":J3_w0" function="walkingarea">
        <lane id=":J3_w0_0" index="0" allow="pedestrian" speed="2.78" length="16.80" width="2.00" shape="100.00,7.40 100.00,9.40 100.00,-9.40 100.00,-7.40"/>
    </edge>
    <edge id=":J4_w0" function="walkingarea">
        <lane id=":J4_w0_0" index="0" allow="pedestrian" speed="2.78" length="23.20" width="2.00" shape="10.60,-100.00 12.60,-100.00 -12.60,-100.00 -10.60,-100.00"/>
    </edge>
    <edge id=":J5_w0" function="walkingarea">
        <lane id=":J5_w0_0" index="0" allow="pedestrian" speed="2.78" length="16.80" width="2.00" shape="-100.00,-7.40 -100.00,-9.40 -100.00,9.40 -100.00,7.40"/>
    </edge>

    <edge id="-E0" from="J2" to="J1" priority="-1">
        <lane id="-E0_0" index="0" allow="pedestrian" speed="13.89" length="89.10" width="2.00" shape="11.60,10.90 11.60,100.00"/>
        <lane id="-E0_1" index="1" allow="bicycle" speed="13.89" length="89.10" width="1.00" shape="10.10,10.90 10.10,100.00"/>
        <lane id="-E0_2" index="2" disallow="pedestrian" speed="13.89" length="89.10" shape="8.00,10.90 8.00,100.00"/>
        <lane id="-E0_3" index="3" disallow="pedestrian" speed="13.89" length="89.10" shape="4.80,10.90 4.80,100.00"/>
        <lane id="-E0_4" index="4" disallow="pedestrian" speed="13.89" length="89.10" shape="1.60,10.90 1.60,100.00"/>
    </edge>
    <edge id="-E1" from="J3" to="J2" priority="-1">
        <lane id="-E1_0" index="0" allow="pedestrian" speed="13.89" length="85.90" width="2.00" shape="100.00,8.40 14.10,8.40"/>
        <lane id="-E1_1" index="1" allow="bicycle" speed="13.89" length="85.90" width="1.00" shape="100.00,6.90 14.10,6.90"/>
        <lane id="-E1_2" index="2" disallow="pedestrian" speed="13.89" length="85.90" shape="100.00,4.80 14.10,4.80"/>
        <lane id="-E1_3" index="3" disallow="pedestrian" speed="13.89" length="85.90" shape="100.00,1.60 14.10,1.60"/>
    </edge>
    <edge id="-E2" from="J4" to="J2" priority="-1">
        <lane id="-E2_0" index="0" allow="pedestrian" speed="13.89" length="89.10" width="2.00" shape="11.60,-100.00 11.60,-10.90"/>
        <lane id="-E2_1" index="1" allow="bicycle" speed="13.89" length="89.10" width="1.00" shape="10.10,-100.00 10.10,-10.90"/>
        <lane id="-E2_2" index="2" disallow="pedestrian" speed="13.89" length="89.10" shape="8.00,-100.00 8.00,-10.90"/>
        <lane id="-E2_3" index="3" disallow="pedestrian" speed="13.89" length="89.10" shape="4.80,-100.00 4.80,-10.90"/>
        <lane id="-E2_4" index="4" disallow="pedestrian" speed="13.89" length="89.10" shape="1.60,-100.00 1.60,-10.90"/>
    </edge>
    <edge id="-E3" from="J5" to="J2" priority="-1">
        <lane id="-E3_0" index="0" allow="pedestrian" speed="13.89" length="85.90" width="2.00" shape="-100.00,-8.40 -14.10,-8.40"/>
        <lane id="-E3_1" index="1" allow="bicycle" speed="13.89" length="85.90" width="1.00" shape="-100.00,-6.90 -14.10,-6.90"/>
        <lane id="-E3_2" index="2" disallow="pedestrian" speed="13.89" length="85.90" shape="-100.00,-4.80 -14.10,-4.80"/>
        <lane id="-E3_3" index="3" disallow="pedestrian" speed="13.89" length="85.90" shape="-100.00,-1.60 -14.10,-1.60"/>
    </edge>
    <edge id="E0" from="J1" to="J2" priority="-1">
        <lane id="E0_0" index="0" allow="pedestrian" speed="13.89" length="89.10" width="2.00" shape="-11.60,100.00 -11.60,10.90"/>
        <lane id="E0_1" index="1" allow="bicycle" speed="13.89" length="89.10" width="1.00" shape="-10.10,100.00 -10.10,10.90"/>
        <lane id="E0_2" index="2" disallow="pedestrian" speed="13.89" length="89.10" shape="-8.00,100.00 -8.00,10.90"/>
        <lane id="E0_3" index="3" disallow="pedestrian" speed="13.89" length="89.10" shape="-4.80,100.00 -4.80,10.90"/>
        <lane id="E0_4" index="4" disallow="pedestrian" speed="13.89" length="89.10" shape="-1.60,100.00 -1.60,10.90"/>
    </edge>
    <edge id="E1" from="J2" to="J3" priority="-1">
        <lane id="E1_0" index="0" allow="pedestrian" speed="13.89" length="85.90" width="2.00" shape="14.10,-8.40 100.00,-8.40"/>
        <lane id="E1_1" index="1" allow="bicycle" speed="13.89" length="85.90" width="1.00" shape="14.10,-6.90 100.00,-6.90"/>
        <lane id="E1_2" index="2" disallow="pedestrian" speed="13.89" length="85.90" shape="14.10,-4.80 100.00,-4.80"/>
        <lane id="E1_3" index="3" disallow="pedestrian" speed="13.89" length="85.90" shape="14.10,-1.60 100.00,-1.60"/>
    </edge>
    <edge id="E2" from="J2" to="J4" priority="-1">
        <lane id="E2_0" index="0" allow="pedestrian" speed="13.89" length="89.10" width="2.00" shape="-11.60,-10.90 -11.60,-100.00"/>
        <lane id="E2_1" index="1" allow="bicycle" speed="13.89" length="89.10" width="1.00" shape="-10.10,-10.90 -10.10,-100.00"/>
        <lane id="E2_2" index="2" disallow="pedestrian" speed="13.89" length="89.10" shape="-8.00,-10.90 -8.00,-100.00"/>
        <lane id="E2_3" index="3" disallow="pedestrian" speed="13.89" length="89.10" shape="-4.80,-10.90 -4.80,-100.00"/>
        <lane id="E2_4" index="4" disallow="pedestrian" speed="13.89" length="89.10" shape="-1.60,-10.90 -1.60,-100.00"/>
    </edge>
    <edge id="E3" from="J2" to="J5" priority="-1">
        <lane id="E3_0" index="0" allow="pedestrian" speed="13.89" length="85.90" width="2.00" shape="-14.10,8.40 -100.00,8.40"/>
        <lane id="E3_1" index="1" allow="bicycle" speed="13.89" length="85.90" width="1.00" shape="-14.10,6.90 -100.00,6.90"/>
        <lane id="E3_2" index="2" disallow="pedestrian" speed="13.89" length="85.90" shape="-14.10,4.80 -100.00,4.80"/>
        <lane id="E3_3" index="3" disallow="pedestrian" speed="13.89" length="85.90" shape="-14.10,1.60 -100.00,1.60"/>
    </edge>

    <tlLogic id="J2" type="static" programID="0" offset="0">
        <phase duration="10" state="grrGGGGrgrrrrrrgrrGGGGrgrrrrrrrrrr"/>
        <phase duration="3"  state="grryGGGrgrrrrrrgrryGGGrgrrrrrrrrrr"/>
        <phase duration="20" state="gGrrGGGrgrrrrrrgGrrGGGrgrrrrrrrGrG"/>
        <phase duration="3"  state="grrryyyrgrrrrrrgrrryyyrgrrrrrrrrrr"/>
        <phase duration="15" state="grrGrrrGgrrGrrrgrrGrrrGgrrGrrrrrrr"/>
        <phase duration="3"  state="grryrrrygrrGrrrgrryrrrygrrGrrrrrrr"/>
        <phase duration="10" state="grrrrrrrgrrGGGrgrrrrrrrgrrGGGrrrrr"/>
        <phase duration="3"  state="grrrrrrrgrryGGrgrrrrrrrgrryGGrrrrr"/>
        <phase duration="20" state="grrrrrrrgGrrGGrgrrrrrrrgGrrGGrGrGr"/>
        <phase duration="3"  state="grrrrrrrgrrryyrgrrrrrrrgrrryyrrrrr"/>
        <phase duration="15" state="grrGrrrrgrrGrrGgrrGrrrrgrrGrrGrrrr"/>
        <phase duration="3"  state="grrGrrrrgrryrrygrrGrrrrgrryrryrrrr"/>
    </tlLogic>

    <junction id="J1" type="dead_end" x="0.00" y="100.00" incLanes="-E0_0 -E0_1 -E0_2 -E0_3 -E0_4" intLanes="" shape="0.00,100.00 12.60,100.00 0.00,100.00"/>
    <junction id="J2" type="traffic_light" x="0.00" y="0.00" incLanes="E0_0 E0_1 E0_2 E0_3 E0_4 -E1_0 -E1_1 -E1_2 -E1_3 -E2_0 -E2_1 -E2_2 -E2_3 -E2_4 -E3_0 -E3_1 -E3_2 -E3_3 :J2_w1_0 :J2_w2_0 :J2_w3_0 :J2_w0_0" intLanes=":J2_0_0 :J2_1_0 :J2_30_0 :J2_31_0 :J2_4_0 :J2_4_1 :J2_4_2 :J2_32_0 :J2_8_0 :J2_9_0 :J2_33_0 :J2_34_0 :J2_12_0 :J2_12_1 :J2_35_0 :J2_15_0 :J2_16_0 :J2_36_0 :J2_37_0 :J2_19_0 :J2_19_1 :J2_19_2 :J2_38_0 :J2_23_0 :J2_24_0 :J2_39_0 :J2_40_0 :J2_27_0 :J2_27_1 :J2_41_0 :J2_c0_0 :J2_c1_0 :J2_c2_0 :J2_c3_0" shape="-12.60,10.90 12.60,10.90 12.77,10.07 12.97,9.78 13.27,9.57 13.64,9.44 14.10,9.40 14.10,-9.40 13.27,-9.57 12.97,-9.78 12.77,-10.07 12.64,-10.44 12.60,-10.90 -12.60,-10.90 -12.77,-10.07 -12.97,-9.78 -13.27,-9.57 -13.64,-9.44 -14.10,-9.40 -14.10,9.40 -13.27,9.57 -12.97,9.78 -12.77,10.07 -12.64,10.44">
        <request index="0"  response="1001000000000000100000000000000000" foes="1001000000000000100000001000000000" cont="0"/>
        <request index="1"  response="0101100010010000100000010000000000" foes="0101111111110000100011011000001000" cont="0"/>
        <request index="2"  response="0011100010001111011100010001110000" foes="0011111011001111111111011001111000" cont="1"/>
        <request index="3"  response="1001000000010000100000000000000110" foes="1001000000010000100011001000000110" cont="1"/>
        <request index="4"  response="0101100010010000100100010000000000" foes="0101111111010000100111011000000100" cont="0"/>
        <request index="5"  response="0101100010010000100100010000000000" foes="0101111111010000100111011000000100" cont="0"/>
        <request index="6"  response="0101100010010000100100010000000000" foes="0101111111010000100111011000000100" cont="0"/>
        <request index="7"  response="0011100010001111010100010000000000" foes="0011111010001111010111011000000000" cont="1"/>
        <request index="8"  response="0011000010000000010000000000000000" foes="0011000010000000010000000000000000" cont="0"/>
        <request index="9"  response="1010100010001110110000000011111111" foes="1010100010001110110000100011111111" cont="0"/>
        <request index="10" response="0110011111111110110011000011110110" foes="0110011111111110110011100011110110" cont="1"/>
        <request index="11" response="0011100010001110010000011000000000" foes="0011100010001110010000011000000000" cont="1"/>
        <request index="12" response="1010100010011110110000000011111110" foes="1010100010011110110000010011111110" cont="0"/>
        <request index="13" response="1010100010011110110000000011111110" foes="1010100010011110110000010011111110" cont="0"/>
        <request index="14" response="0110011101011110110000000011110100" foes="0110011101011110110000000011110100" cont="1"/>
        <request index="15" response="0110000000000000000000000000000100" foes="0110000001000000000000000000000100" cont="0"/>
        <request index="16" response="0101000010000000000100010010000100" foes="0101011011000001000111111110000100" cont="0"/>
        <request index="17" response="1100100010001110000100010001111111" foes="1100111011001111000111011001111111" cont="1"/>
        <request index="18" response="0110000000000000110000000010000100" foes="0110011001000000110000000010000100" cont="1"/>
        <request index="19" response="0101100010000000000100010010000100" foes="0101111011000000100111111010000100" cont="0"/>
        <request index="20" response="0101100010000000000100010010000100" foes="0101111011000000100111111010000100" cont="0"/>
        <request index="21" response="0101100010000000000100010010000100" foes="0101111011000000100111111010000100" cont="0"/>
        <request index="22" response="1100100010000000000100010001111010" foes="1100111011000000000111010001111010" cont="1"/>
        <request index="23" response="1100000000000000000000010000000010" foes="1100000000000000000000010000000010" cont="0"/>
        <request index="24" response="1010000000011111111100010001110110" foes="1010000100011111111100010001110110" cont="0"/>
        <request index="25" response="1001011000011110110011101111110110" foes="1001011100011110110011111111110110" cont="1"/>
        <request index="26" response="1100000011000000000100010001110010" foes="1100000011000000000100010001110010" cont="1"/>
        <request index="27" response="1010000000011111110100010011110110" foes="1010000010011111110100010011110110" cont="0"/>
        <request index="28" response="1010000000011111110100010011110110" foes="1010000010011111110100010011110110" cont="0"/>
        <request index="29" response="1001000000011110100011101011110110" foes="1001000000011110100011101011110110" cont="1"/>
        <request index="30" response="0000000000000000000000000000000000" foes="0000100010001110010000100111111111" cont="0"/>
        <request index="31" response="0000000000000000000000000000000000" foes="0000011001000001001111111110000100" cont="0"/>
        <request index="32" response="0000000000000000000000000000000000" foes="0000000100111111111100010001110010" cont="0"/>
        <request index="33" response="0000000000000000000000000000000000" foes="0000111111110000100011001000001001" cont="0"/>
    </junction>
    <junction id="J3" type="dead_end" x="100.00" y="0.00" incLanes="E1_0 E1_1 E1_2 E1_3" intLanes="" shape="100.00,0.00 100.00,-9.40 100.00,0.00"/>
    <junction id="J4" type="dead_end" x="0.00" y="-100.00" incLanes="E2_0 E2_1 E2_2 E2_3 E2_4" intLanes="" shape="0.00,-100.00 -12.60,-100.00 0.00,-100.00"/>
    <junction id="J5" type="dead_end" x="-100.00" y="0.00" incLanes="E3_0 E3_1 E3_2 E3_3" intLanes="" shape="-100.00,0.00 -100.00,9.40 -100.00,0.00"/>

    <junction id=":J2_30_0" type="internal" x="10.10" y="-6.01" incLanes=":J2_2_0" intLanes=":J2_4_0 :J2_4_1 :J2_4_2 :J2_9_0 :J2_10_0 :J2_12_0 :J2_12_1 :J2_14_0 :J2_15_0 :J2_16_0 :J2_17_0 :J2_18_0 :J2_19_0 :J2_19_1 :J2_19_2 :J2_24_0 :J2_25_0 :J2_27_0 :J2_27_1 :J2_29_0 :J2_c0_0 :J2_c1_0"/>
    <junction id=":J2_31_0" type="internal" x="-10.10" y="5.98" incLanes=":J2_3_0" intLanes=":J2_1_0 :J2_2_0 :J2_9_0 :J2_12_0 :J2_12_1 :J2_17_0 :J2_22_0 :J2_c0_0 :J2_c3_0"/>
    <junction id=":J2_32_0" type="internal" x="10.10" y="-0.79" incLanes=":J2_7_0" intLanes=":J2_9_0 :J2_10_0 :J2_12_0 :J2_12_1 :J2_14_0 :J2_15_0 :J2_16_0 :J2_17_0 :J2_18_0 :J2_19_0 :J2_19_1 :J2_19_2 :J2_24_0 :J2_25_0 :J2_27_0 :J2_27_1 :J2_29_0 :J2_c0_0 :J2_c1_0"/>
    <junction id=":J2_33_0" type="internal" x="-8.44" y="-6.90" incLanes=":J2_10_0" intLanes=":J2_1_0 :J2_2_0 :J2_4_0 :J2_4_1 :J2_4_2 :J2_7_0 :J2_12_0 :J2_12_1 :J2_16_0 :J2_17_0 :J2_19_0 :J2_19_1 :J2_19_2 :J2_22_0 :J2_23_0 :J2_24_0 :J2_25_0 :J2_26_0 :J2_27_0 :J2_27_1 :J2_c1_0 :J2_c2_0"/>
    <junction id=":J2_34_0" type="internal" x="9.18" y="6.90" incLanes=":J2_11_0" intLanes=":J2_9_0 :J2_10_0 :J2_16_0 :J2_19_0 :J2_19_1 :J2_19_2 :J2_25_0 :J2_29_0 :J2_c0_0 :J2_c1_0"/>
    <junction id=":J2_35_0" type="internal" x="-0.28" y="-6.90" incLanes=":J2_14_0" intLanes=":J2_1_0 :J2_2_0 :J2_4_0 :J2_4_1 :J2_4_2 :J2_7_0 :J2_16_0 :J2_17_0 :J2_19_0 :J2_19_1 :J2_19_2 :J2_22_0 :J2_23_0 :J2_24_0 :J2_25_0 :J2_26_0 :J2_27_0 :J2_27_1 :J2_c1_0 :J2_c2_0"/>
    <junction id=":J2_36_0" type="internal" x="-10.10" y="6.01" incLanes=":J2_17_0 :J2_2_0" intLanes=":J2_30_0 :J2_0_0 :J2_1_0 :J2_2_0 :J2_3_0 :J2_4_0 :J2_4_1 :J2_4_2 :J2_9_0 :J2_10_0 :J2_12_0 :J2_12_1 :J2_14_0 :J2_19_0 :J2_19_1 :J2_19_2 :J2_24_0 :J2_25_0 :J2_27_0 :J2_27_1 :J2_29_0 :J2_c2_0 :J2_c3_0"/>
    <junction id=":J2_37_0" type="internal" x="10.10" y="-5.98" incLanes=":J2_18_0" intLanes=":J2_2_0 :J2_7_0 :J2_16_0 :J2_17_0 :J2_24_0 :J2_27_0 :J2_27_1 :J2_c1_0 :J2_c2_0"/>
    <junction id=":J2_38_0" type="internal" x="-10.10" y="0.79" incLanes=":J2_22_0 :J2_2_0" intLanes=":J2_30_0 :J2_0_0 :J2_1_0 :J2_2_0 :J2_3_0 :J2_4_0 :J2_4_1 :J2_4_2 :J2_9_0 :J2_10_0 :J2_12_0 :J2_12_1 :J2_14_0 :J2_24_0 :J2_25_0 :J2_27_0 :J2_27_1 :J2_29_0 :J2_c2_0 :J2_c3_0"/>
    <junction id=":J2_39_0" type="internal" x="8.44" y="6.90" incLanes=":J2_25_0" intLanes=":J2_1_0 :J2_2_0 :J2_4_0 :J2_4_1 :J2_4_2 :J2_7_0 :J2_8_0 :J2_9_0 :J2_10_0 :J2_11_0 :J2_12_0 :J2_12_1 :J2_16_0 :J2_17_0 :J2_19_0 :J2_19_1 :J2_19_2 :J2_22_0 :J2_27_0 :J2_27_1 :J2_c0_0 :J2_c3_0"/>
    <junction id=":J2_40_0" type="internal" x="-9.18" y="-6.90" incLanes=":J2_26_0" intLanes=":J2_1_0 :J2_4_0 :J2_4_1 :J2_4_2 :J2_10_0 :J2_14_0 :J2_24_0 :J2_25_0 :J2_c2_0 :J2_c3_0"/>
    <junction id=":J2_41_0" type="internal" x="0.28" y="6.90" incLanes=":J2_29_0" intLanes=":J2_1_0 :J2_2_0 :J2_4_0 :J2_4_1 :J2_4_2 :J2_7_0 :J2_8_0 :J2_9_0 :J2_10_0 :J2_11_0 :J2_12_0 :J2_12_1 :J2_16_0 :J2_17_0 :J2_19_0 :J2_19_1 :J2_19_2 :J2_22_0 :J2_c0_0 :J2_c3_0"/>

    <connection from="-E1" to="-E0" fromLane="1" toLane="1" via=":J2_8_0" tl="J2" linkIndex="8" dir="r" state="o"/>
    <connection from="-E1" to="E3" fromLane="1" toLane="1" via=":J2_9_0" tl="J2" linkIndex="9" dir="s" state="o"/>
    <connection from="-E1" to="E2" fromLane="1" toLane="1" via=":J2_10_0" tl="J2" linkIndex="10" dir="l" state="o"/>
    <connection from="-E1" to="-E0" fromLane="2" toLane="2" via=":J2_11_0" tl="J2" linkIndex="11" dir="r" state="o"/>
    <connection from="-E1" to="E3" fromLane="2" toLane="2" via=":J2_12_0" tl="J2" linkIndex="12" dir="s" state="o"/>
    <connection from="-E1" to="E3" fromLane="3" toLane="3" via=":J2_12_1" tl="J2" linkIndex="13" dir="s" state="o"/>
    <connection from="-E1" to="E2" fromLane="3" toLane="4" via=":J2_14_0" tl="J2" linkIndex="14" dir="l" state="o"/>
    <connection from="-E2" to="E1" fromLane="1" toLane="1" via=":J2_15_0" tl="J2" linkIndex="15" dir="r" state="o"/>
    <connection from="-E2" to="-E0" fromLane="1" toLane="1" via=":J2_16_0" tl="J2" linkIndex="16" dir="s" state="o"/>
    <connection from="-E2" to="E3" fromLane="1" toLane="1" via=":J2_17_0" tl="J2" linkIndex="17" dir="l" state="o"/>
    <connection from="-E2" to="E1" fromLane="2" toLane="2" via=":J2_18_0" tl="J2" linkIndex="18" dir="r" state="o"/>
    <connection from="-E2" to="-E0" fromLane="2" toLane="2" via=":J2_19_0" tl="J2" linkIndex="19" dir="s" state="o"/>
    <connection from="-E2" to="-E0" fromLane="3" toLane="3" via=":J2_19_1" tl="J2" linkIndex="20" dir="s" state="o"/>
    <connection from="-E2" to="-E0" fromLane="4" toLane="4" via=":J2_19_2" tl="J2" linkIndex="21" dir="s" state="o"/>
    <connection from="-E2" to="E3" fromLane="4" toLane="3" via=":J2_22_0" tl="J2" linkIndex="22" dir="l" state="o"/>
    <connection from="-E3" to="E2" fromLane="1" toLane="1" via=":J2_23_0" tl="J2" linkIndex="23" dir="r" state="o"/>
    <connection from="-E3" to="E1" fromLane="1" toLane="1" via=":J2_24_0" tl="J2" linkIndex="24" dir="s" state="o"/>
    <connection from="-E3" to="-E0" fromLane="1" toLane="1" via=":J2_25_0" tl="J2" linkIndex="25" dir="l" state="o"/>
    <connection from="-E3" to="E2" fromLane="2" toLane="2" via=":J2_26_0" tl="J2" linkIndex="26" dir="r" state="o"/>
    <connection from="-E3" to="E1" fromLane="2" toLane="2" via=":J2_27_0" tl="J2" linkIndex="27" dir="s" state="o"/>